Input Parameters:
   integrator           = md
   nsteps               = 2000
   init-step            = 0
   cutoff-scheme        = Group
   ns_type              = Grid
   nstlist              = 5
   ndelta               = 2
   nstcomm              = 500
   comm-mode            = Linear
   nstlog               = 1000
   nstxout              = 500
   nstvout              = 500
   nstfout              = 0
   nstcalcenergy        = 500
   nstenergy            = 500
   nstxtcout            = 0
   init-t               = 0
   delta-t              = 0.002
   xtcprec              = 1000
   fourierspacing       = 0.16
   nkx                  = 12
   nky                  = 12
   nkz                  = 40
   pme-order            = 4
   ewald-rtol           = 1e-05
   ewald-geometry       = 0
   epsilon-surface      = 0
   optimize-fft         = FALSE
   ePBC                 = xyz
   bPeriodicMols        = FALSE
   bContinuation        = FALSE
   bShakeSOR            = FALSE
   etc                  = Nose-Hoover
   bPrintNHChains       = FALSE
   nsttcouple           = 5
   epc                  = Parrinello-Rahman
   epctype              = Semiisotropic
   nstpcouple           = 5
   tau-p                = 2
   ref-p (3x3):
      ref-p[    0]={ 1.00000e+00,  0.00000e+00,  0.00000e+00}
      ref-p[    1]={ 0.00000e+00,  1.00000e+00,  0.00000e+00}
      ref-p[    2]={ 0.00000e+00,  0.00000e+00,  1.00000e+00}
   compress (3x3):
      compress[    0]={ 4.50000e-05,  0.00000e+00,  0.00000e+00}
      compress[    1]={ 0.00000e+00,  4.50000e-05,  0.00000e+00}
      compress[    2]={ 0.00000e+00,  0.00000e+00,  4.50000e-05}
   refcoord-scaling     = No
   posres-com (3):
      posres-com[0]= 0.00000e+00
      posres-com[1]= 0.00000e+00
      posres-com[2]= 0.00000e+00
   posres-comB (3):
      posres-comB[0]= 0.00000e+00
      posres-comB[1]= 0.00000e+00
      posres-comB[2]= 0.00000e+00
   verlet-buffer-drift  = 0.005
   rlist                = 0.75
   rlistlong            = 0.75
   nstcalclr            = 0
   rtpi                 = 0.05
   coulombtype          = PME
   coulomb-modifier     = None
   rcoulomb-switch      = 0
   rcoulomb             = 0.75
   vdwtype              = Switch
   vdw-modifier         = None
   rvdw-switch          = 0.55
   rvdw                 = 0.6
   epsilon-r            = 1
   epsilon-rf           = inf
   tabext               = 1
   implicit-solvent     = No
   gb-algorithm         = Still
   gb-epsilon-solvent   = 80
   nstgbradii           = 1
   rgbradii             = 1
   gb-saltconc          = 0
   gb-obc-alpha         = 1
   gb-obc-beta          = 0.8
   gb-obc-gamma         = 4.85
   gb-dielectric-offset = 0.009
   sa-algorithm         = Ace-approximation
   sa-surface-tension   = 2.05016
   DispCorr             = EnerPres
   bSimTemp             = FALSE
   free-energy          = no
   nwall                = 0
   wall-type            = 9-3
   wall-atomtype[0]     = -1
   wall-atomtype[1]     = -1
   wall-density[0]      = 0
   wall-density[1]      = 0
   wall-ewald-zfac      = 3
   pull                 = no
   rotation             = FALSE
   disre                = No
   disre-weighting      = Conservative
   disre-mixed          = FALSE
   dr-fc                = 1000
   dr-tau               = 0
   nstdisreout          = 100
   orires-fc            = 0
   orires-tau           = 0
   nstorireout          = 100
   dihre-fc             = 0
   em-stepsize          = 0.01
   em-tol               = 10
   niter                = 20
   fc-stepsize          = 0
   nstcgsteep           = 1000
   nbfgscorr            = 10
   ConstAlg             = Lincs
   shake-tol            = 0.0001
   lincs-order          = 4
   lincs-warnangle      = 30
   lincs-iter           = 1
   bd-fric              = 0
   ld-seed              = 1993
   cos-accel            = 0
   deform (3x3):
      deform[    0]={ 0.00000e+00,  0.00000e+00,  0.00000e+00}
      deform[    1]={ 0.00000e+00,  0.00000e+00,  0.00000e+00}
      deform[    2]={ 0.00000e+00,  0.00000e+00,  0.00000e+00}
   adress               = FALSE
   userint1             = 0
   userint2             = 0
   userint3             = 0
   userint4             = 0
   userreal1            = 0
   userreal2            = 0
   userreal3            = 0
   userreal4            = 0
grpopts:
   nrdf:        1705         805
   ref-t:      323.15      323.15
   tau-t:         0.5         0.5
anneal:          No          No
ann-npoints:           0           0
   acc:	           0           0           0
   nfreeze:           N           N           N
   energygrp-flags[  0]: 0
   efield-x:
      n = 0
   efield-xt:
      n = 0
   efield-y:
      n = 0
   efield-yt:
      n = 0
   efield-z:
      n = 0
   efield-zt:
      n = 0
   bQMMM                = FALSE
   QMconstraints        = 0
   QMMMscheme           = 0
   scalefactor          = 1
qm-opts:
   ngQM                 = 0
Using 1 MPI thread

Detecting CPU-specific acceleration.
Present hardware specification:
Vendor: GenuineIntel
Brand:  Intel(R) Core(TM) i7-3820 CPU @ 3.60GHz
Family:  6  Model: 45  Stepping:  7
Features: aes apic avx clfsh cmov cx8 cx16 htt lahf_lm mmx msr nonstop_tsc pcid pclmuldq pdcm pdpe1gb popcnt pse rdtscp sse2 sse3 sse4.1 sse4.2 ssse3 tdt x2apic
Acceleration most likely to fit this hardware: AVX_256
Acceleration selected at GROMACS compile time: AVX_256

3 GPUs detected:
  #0: NVIDIA GeForce GTX TITAN, compute cap.: 3.5, ECC:  no, stat: compatible
  #1: NVIDIA Tesla K20c, compute cap.: 3.5, ECC:  no, stat: compatible
  #2: NVIDIA GeForce GTX 580, compute cap.: 2.0, ECC:  no, stat: compatible

Table routines are used for coulomb: FALSE
Table routines are used for vdw:     TRUE
Will do PME sum in reciprocal space.

Will do ordinary reciprocal space Ewald sum.
Using a Gaussian width (1/beta) of 0.240122 nm for Ewald
Using shifted Lennard-Jones, switch between 0.55 and 0.6 nm
Cut-off's:   NS: 0.75   Coulomb: 0.75   LJ: 0.6
Long Range LJ corr.: <C6> 1.3708e-03
System total charge: 0.000
Generated table with 875 data points for Ewald.
Tabscale = 500 points/nm
Generated table with 875 data points for LJ6Switch.
Tabscale = 500 points/nm
Generated table with 875 data points for LJ12Switch.
Tabscale = 500 points/nm
Generated table with 875 data points for 1-4 COUL.
Tabscale = 500 points/nm
Generated table with 875 data points for 1-4 LJ6.
Tabscale = 500 points/nm
Generated table with 875 data points for 1-4 LJ12.
Tabscale = 500 points/nm

Enabling SPC-like water optimization for 244 molecules.

Found environment variable GMX_NO_SOLV_OPT.
Disabling all solvent optimization
Potential shift: LJ r^-12: 0.000 r^-6 0.000, Ewald 0.000e+00
Initialized non-bonded Ewald correction tables, spacing: 5.71e-04 size: 3064

Removing pbc first time

Initializing LINear Constraint Solver

The number of constraints is 880
Center of mass motion removal mode is Linear
We have the following groups for center of mass motion removal:
  0:  Water
  1:  non-Water
There are: 1132 Atoms
Max number of connections per atom is 35
Total number of connections is 7424
Max number of graph edges per atom is 4
Total number of graph edges is 1760

Constraining the starting coordinates (step 0)

Constraining the coordinates at t0-dt (step 0)
RMS relative constraint deviation after constraining: 2.92e-06
Initial temperature: 307.489 K

Started mdrun on node 0 Wed Jul 23 11:40:18 2014

           Step           Time         Lambda
              0        0.00000        0.00000

   Energies (kJ/mol)
          Angle    Proper Dih. Ryckaert-Bell.  Improper Dih.          LJ-14
    1.62118e+03    2.54580e+02    4.97590e+02    1.98748e+01    2.96383e+02
     Coulomb-14        LJ (SR)  Disper. corr.   Coulomb (SR)   Coul. recip.
    4.17153e+02    9.56561e+02   -1.13574e+03   -1.13345e+04   -1.05367e+04
      Potential    Kinetic En.   Total Energy    Temperature Pres. DC (bar)
   -1.89436e+04    3.21450e+03   -1.57291e+04    3.08058e+02   -1.10507e+03
   -2.22878e+02    3.41069e-06

	<====  A V E R A G E S  ====>

	Statistics over 2001 steps using 5 frames

   Energies (kJ/mol)
          Angle    Proper Dih. Ryckaert-Bell.  Improper Dih.          LJ-14
    1.56633e+03    2.57283e+02    4.87200e+02    2.70406e+01    2.86286e+02
     Coulomb-14        LJ (SR)  Disper. corr.   Coulomb (SR)   Coul. recip.
    4.68512e+02    1.05047e+03   -1.14025e+03   -1.15102e+04   -1.05542e+04
      Potential    Kinetic En.   Total Energy    Temperature Pres. DC (bar)
   -1.90616e+04    3.35488e+03   -1.57067e+04    3.21511e+02   -1.11394e+03
 Pressure (bar)   Constr. rmsd
    1.69155e+02    0.00000e+00

          Box-X          Box-Y          Box-Z
    1.72257e+00    1.72257e+00    5.72926e+00

   Total Virial (kJ/mol)
    8.57799e+02   -2.15045e+02    1.61117e+02
   -2.15043e+02    1.29620e+03   -9.19439e+00
    1.61119e+02   -9.19905e+00    9.45210e+02

   Pressure (bar)
    5.17361e+02    3.67461e+02   -3.01447e+02
    3.67458e+02   -3.29925e+02    6.30872e+01
   -3.01452e+02    6.30963e+01    3.20029e+02

        T-Water    T-non-Water
    3.18064e+02    3.28814e+02
